/*--------------------------------*- C++ -*----------------------------------*\
| =========                 |                                                 |
| \\      /  F ield         | OpenFOAM: The Open Source CFD Toolbox           |
|  \\    /   O peration     | Version:  2206                                  |
|   \\  /    A nd           | Web:      www.OpenFOAM.com                      |
|    \\/     M anipulation  |                                                 |
\*---------------------------------------------------------------------------*/
FoamFile
{
    format      ascii;
    class       dictionary;
    object      fvSchemes;
}
// * * * * * * * * * * * * * * * * * * * * * * * * * * * * * * * * * * * * * //

ddtSchemes
{
    default	Euler;
}

gradSchemes
{
    default	Gauss linear;
}

divSchemes
{
    default	none;
}

laplacianSchemes
{
    default	none;
    laplacian(alpha,h)	Gauss linear corrected;
}

interpolationSchemes
{
    default	linear;
}

snGradSchemes
{
    default	corrected;
}

fluxRequired
{
    default	no;
}

// ************************************************************************* //
